REMARK  Name = ligand
REMARK  41 active torsions:
REMARK  status: ('A' for Active; 'I' for Inactive)
REMARK    1  A    between atoms: C_2  and  C_17
REMARK    2  A    between atoms: C_6  and  C_12
REMARK    3  A    between atoms: C_8  and  C_9
REMARK    4  A    between atoms: C_9  and  C_27
REMARK    5  A    between atoms: C_9  and  N_30
REMARK    6  A    between atoms: C_10  and  C_27
REMARK    7  A    between atoms: N_13  and  C_14
REMARK    8  A    between atoms: C_14  and  C_15
REMARK    9  A    between atoms: C_18  and  C_19
REMARK   10  A    between atoms: C_22  and  O_23
REMARK   11  A    between atoms: C_27  and  C_28
REMARK   12  A    between atoms: C_27  and  C_29
REMARK   13  A    between atoms: C_31  and  C_33
REMARK   14  A    between atoms: C_33  and  C_34
REMARK   15  A    between atoms: C_34  and  O_35
REMARK   16  A    between atoms: O_35  and  C_36
REMARK   17  A    between atoms: C_36  and  C_37
REMARK   18  A    between atoms: C_37  and  O_38
REMARK   19  A    between atoms: O_38  and  C_39
REMARK   20  A    between atoms: C_39  and  C_40
REMARK   21  A    between atoms: C_40  and  O_41
REMARK   22  A    between atoms: O_41  and  C_42
REMARK   23  A    between atoms: C_42  and  C_43
REMARK   24  A    between atoms: C_43  and  O_44
REMARK   25  A    between atoms: O_44  and  C_45
REMARK   26  A    between atoms: C_45  and  C_46
REMARK   27  A    between atoms: C_46  and  O_47
REMARK   28  A    between atoms: O_47  and  C_48
REMARK   29  A    between atoms: C_48  and  C_49
REMARK   30  A    between atoms: C_49  and  O_50
REMARK   31  A    between atoms: O_50  and  C_51
REMARK   32  A    between atoms: C_51  and  C_52
REMARK   33  A    between atoms: C_53  and  C_54
REMARK   34  A    between atoms: C_59  and  O_60
REMARK   35  A    between atoms: O_60  and  C_61
REMARK   36  A    between atoms: C_61  and  C_62
REMARK   37  A    between atoms: C_62  and  C_63
REMARK   38  A    between atoms: C_63  and  C_64
REMARK   39  A    between atoms: CA_65  and  C_66
REMARK   40  A    between atoms: C_66  and  OXT_68
REMARK   41  A    between atoms: C_81  and  C_82
REMARK                            x       y       z     vdW  Elec       q    Type
REMARK                         _______ _______ _______ _____ _____    ______ ____
ROOT
ATOM      1  C   UNL     1       4.613   1.256   3.922  0.00  0.00    +0.000 C 
ENDROOT
BRANCH   1   2
ATOM      2  C   UNL     1       4.588   0.723   2.485  0.00  0.00    +0.000 C 
BRANCH   2   3
ATOM      3  O   UNL     1       3.273   0.288   2.170  0.00  0.00    +0.000 OA
BRANCH   3   4
ATOM      4  C   UNL     1       3.144  -0.240   0.856  0.00  0.00    +0.000 C 
BRANCH   4   5
ATOM      5  C   UNL     1       1.699  -0.705   0.635  0.00  0.00    +0.000 C 
BRANCH   5   6
ATOM      6  O   UNL     1       0.831   0.420   0.663  0.00  0.00    +0.000 OA
BRANCH   6   7
ATOM      7  C   UNL     1      -0.546   0.082   0.555  0.00  0.00    +0.000 C 
BRANCH   7   8
ATOM      8  C   UNL     1      -1.386   1.365   0.551  0.00  0.00    +0.000 C 
BRANCH   8   9
ATOM      9  O   UNL     1      -1.133   2.095  -0.642  0.00  0.00    +0.000 OA
BRANCH   9  10
ATOM     10  C   UNL     1      -1.835   3.330  -0.714  0.00  0.00    +0.000 C 
BRANCH  10  11
ATOM     11  C   UNL     1      -1.584   3.990  -2.076  0.00  0.00    +0.000 C 
BRANCH  11  12
ATOM     12  O   UNL     1      -2.140   3.177  -3.102  0.00  0.00    +0.000 OA
BRANCH  12  13
ATOM     13  C   UNL     1      -2.080   3.763  -4.395  0.00  0.00    +0.000 C 
BRANCH  13  14
ATOM     14  C   UNL     1      -2.672   2.769  -5.412  0.00  0.00    +0.000 C 
BRANCH  14  16
ATOM     15  N   UNL     1      -2.356   2.714  -7.842  0.00  0.00    +0.000 N 
ATOM     16  C   UNL     1      -2.889   3.379  -6.801  0.00  0.00    +0.000 C 
ATOM     17  O   UNL     1      -3.540   4.417  -6.927  0.00  0.00    +0.000 OA
ATOM     18  H   UNL     1      -1.838   1.865  -7.670  0.00  0.00    +0.000 HD
BRANCH  15  19
ATOM     19  C   UNL     1      -2.514   3.083  -9.257  0.00  0.00    +0.000 C 
BRANCH  19  22
ATOM     20  C   UNL     1      -6.074   3.426 -10.904  0.00  0.00    +0.000 C 
ATOM     21  C   UNL     1      -6.539   4.761 -11.501  0.00  0.00    +0.000 C 
ATOM     22  C   UNL     1      -3.961   2.734  -9.714  0.00  0.00    +0.000 C 
ATOM     23  C   UNL     1      -5.229   5.462 -11.826  0.00  0.00    +0.000 C 
ATOM     24  C   UNL     1      -4.295   5.025 -10.698  0.00  0.00    +0.000 C 
ATOM     25  N   UNL     1      -4.687   3.636 -10.428  0.00  0.00    +0.000 N 
ATOM     26  O   UNL     1      -4.399   1.621  -9.409  0.00  0.00    +0.000 OA
BRANCH  20  28
ATOM     27  O   UNL     1      -5.305   2.100 -12.757  0.00  0.00    +0.000 OA
ATOM     28  C   UNL     1      -6.180   2.256 -11.904  0.00  0.00    +0.000 C 
ATOM     29  N   UNL     1      -7.270   1.481 -11.778  0.00  0.00    +0.000 N 
ATOM     30  H   UNL     1      -7.911   1.669 -11.021  0.00  0.00    +0.000 HD
BRANCH  29  31
ATOM     31  C   UNL     1      -7.589   0.337 -12.631  0.00  0.00    +0.000 C 
BRANCH  31  36
ATOM     32  C   UNL     1      -8.351   1.301 -16.769  0.00  0.00    +0.000 A 
ATOM     33  C   UNL     1      -9.329   1.543 -15.800  0.00  0.00    +0.000 A 
ATOM     34  C   UNL     1      -9.081   1.234 -14.465  0.00  0.00    +0.000 A 
ATOM     35  C   UNL     1      -6.878   0.433 -15.061  0.00  0.00    +0.000 A 
ATOM     36  C   UNL     1      -7.851   0.689 -14.092  0.00  0.00    +0.000 A 
ATOM     37  C   UNL     1      -7.126   0.745 -16.395  0.00  0.00    +0.000 A 
BRANCH  32  39
ATOM     38  C   UNL     1      -9.524   1.880 -20.426  0.00  0.00    +0.000 A 
ATOM     39  C   UNL     1      -8.603   1.639 -18.198  0.00  0.00    +0.000 A 
ATOM     40  C   UNL     1      -7.800   2.281 -19.153  0.00  0.00    +0.000 A 
ATOM     41  C   UNL     1      -6.415   2.869 -18.983  0.00  0.00    +0.000 C 
ATOM     42  N   UNL     1      -8.326   2.398 -20.360  0.00  0.00    +0.000 NA
ATOM     43  S   UNL     1     -10.111   1.189 -18.956  0.00  0.00    +0.000 S 
ENDBRANCH  32  39
ENDBRANCH  31  36
ENDBRANCH  29  31
ENDBRANCH  20  28
BRANCH  23  44
ATOM     44  O   UNL     1      -5.367   6.865 -11.914  0.00  0.00    +0.000 OA
ATOM     45  H   UNL     1      -4.505   7.245 -12.102  0.00  0.00    +0.000 HD
ENDBRANCH  23  44
ENDBRANCH  19  22
BRANCH  19  47
ATOM     46  C   UNL     1       0.004   2.941  -9.665  0.00  0.00    +0.000 C 
ATOM     47  C   UNL     1      -1.384   2.466 -10.170  0.00  0.00    +0.000 C 
ATOM     48  C   UNL     1      -1.520   2.935 -11.643  0.00  0.00    +0.000 C 
ATOM     49  C   UNL     1      -1.389   0.914 -10.147  0.00  0.00    +0.000 C 
ENDBRANCH  19  47
ENDBRANCH  15  19
ENDBRANCH  14  16
ENDBRANCH  13  14
ENDBRANCH  12  13
ENDBRANCH  11  12
ENDBRANCH  10  11
ENDBRANCH   9  10
ENDBRANCH   8   9
ENDBRANCH   7   8
ENDBRANCH   6   7
ENDBRANCH   5   6
ENDBRANCH   4   5
ENDBRANCH   3   4
ENDBRANCH   2   3
ENDBRANCH   1   2
BRANCH   1  50
ATOM     50  O   UNL     1       5.946   1.609   4.259  0.00  0.00    +0.000 OA
BRANCH  50  51
ATOM     51  C   UNL     1       6.094   2.114   5.580  0.00  0.00    +0.000 C 
BRANCH  51  52
ATOM     52  C   UNL     1       7.581   2.390   5.832  0.00  0.00    +0.000 C 
BRANCH  52  53
ATOM     53  O   UNL     1       8.288   1.149   5.827  0.00  0.00    +0.000 OA
BRANCH  53  54
ATOM     54  C   UNL     1       9.654   1.205   5.424  0.00  0.00    +0.000 C 
BRANCH  54  55
ATOM     55  C   UNL     1       9.827   1.385   3.970  0.00  0.00    +0.000 C 
ATOM     56  C   UNL     1       9.918   1.544   2.762  0.00  0.00    +0.000 C 
BRANCH  56  57
ATOM     57  C   UNL     1       9.985   1.748   1.323  0.00  0.00    +0.000 A 
ATOM     58  C   UNL     1      11.113   1.336   0.612  0.00  0.00    +0.000 A 
ATOM     59  C   UNL     1      11.174   1.539  -0.764  0.00  0.00    +0.000 A 
ATOM     60  C   UNL     1       8.919   2.357   0.659  0.00  0.00    +0.000 A 
ATOM     61  C   UNL     1       8.984   2.559  -0.717  0.00  0.00    +0.000 A 
ATOM     62  C   UNL     1      10.118   2.153  -1.439  0.00  0.00    +0.000 A 
BRANCH  62  63
ATOM     63  O   UNL     1      10.273   2.319  -2.802  0.00  0.00    +0.000 OA
BRANCH  63  64
ATOM     64  C   UNL     1       9.283   3.034  -3.537  0.00  0.00    +0.000 C 
BRANCH  64  65
ATOM     65  C   UNL     1       9.729   3.169  -5.002  0.00  0.00    +0.000 C 
BRANCH  65  66
ATOM     66  C   UNL     1      11.043   3.954  -5.170  0.00  0.00    +0.000 C 
BRANCH  66  67
ATOM     67  C   UNL     1      11.411   4.142  -6.630  0.00  0.00    +0.000 A 
ATOM     68  CA  UNL     1      11.208   5.213  -7.527  0.00  0.00    +0.000 A 
ATOM     69  S   UNL     1      12.234   2.875  -7.507  0.00  0.00    +0.000 S 
ATOM     70  C   UNL     1      12.242   3.864  -8.932  0.00  0.00    +0.000 A 
ATOM     71  N   UNL     1      11.675   5.030  -8.755  0.00  0.00    +0.000 NA
ATOM     72  N   UNL     1      12.816   3.436 -10.107  0.00  0.00    +0.000 N 
ATOM     73  C   UNL     1      13.287   2.065 -10.336  0.00  0.00    +0.000 C 
ATOM     74  C   UNL     1      14.552   2.045 -11.212  0.00  0.00    +0.000 C 
ATOM     75  C   UNL     1      14.413   2.882 -12.476  0.00  0.00    +0.000 A 
ATOM     76  C   UNL     1      13.406   3.868 -12.572  0.00  0.00    +0.000 A 
ATOM     77  C   UNL     1      12.433   4.049 -11.391  0.00  0.00    +0.000 C 
ATOM     78  C   UNL     1      15.294   2.680 -13.541  0.00  0.00    +0.000 A 
ATOM     79  C   UNL     1      15.188   3.421 -14.709  0.00  0.00    +0.000 A 
ATOM     80  C   UNL     1      14.191   4.379 -14.825  0.00  0.00    +0.000 A 
ATOM     81  C   UNL     1      13.296   4.614 -13.774  0.00  0.00    +0.000 A 
BRANCH  81  82
ATOM     82  C   UNL     1      12.235   5.674 -13.962  0.00  0.00    +0.000 C 
ATOM     83  O   UNL     1      12.092   6.571 -13.129  0.00  0.00    +0.000 OA
ATOM     84  N   UNL     1      11.507   5.545 -15.095  0.00  0.00    +0.000 N 
ATOM     85  C   UNL     1      10.476   6.371 -15.518  0.00  0.00    +0.000 A 
ATOM     86  N   UNL     1       9.975   7.400 -14.881  0.00  0.00    +0.000 NA
ATOM     87  C   UNL     1       8.977   7.985 -15.595  0.00  0.00    +0.000 A 
ATOM     88  C   UNL     1       8.694   7.375 -16.847  0.00  0.00    +0.000 A 
ATOM     89  S   UNL     1       9.771   6.002 -17.073  0.00  0.00    +0.000 S 
ATOM     90  C   UNL     1       8.245   9.109 -15.181  0.00  0.00    +0.000 A 
ATOM     91  C   UNL     1       7.249   9.599 -16.027  0.00  0.00    +0.000 A 
ATOM     92  C   UNL     1       6.978   8.995 -17.256  0.00  0.00    +0.000 A 
ATOM     93  C   UNL     1       7.691   7.877 -17.687  0.00  0.00    +0.000 A 
ATOM     94  H   UNL     1      11.736   4.778 -15.710  0.00  0.00    +0.000 HD
ENDBRANCH  81  82
BRANCH  68  95
ATOM     95  C   UNL     1      10.506   6.450  -7.224  0.00  0.00    +0.000 C 
ATOM     96  O   UNL     1       9.826   6.605  -6.210  0.00  0.00    +0.000 OA
BRANCH  95  97
ATOM     97  OXT UNL     1      10.684   7.434  -8.160  0.00  0.00    +0.000 OA
ATOM     98  HXT UNL     1      10.218   8.242  -7.936  0.00  0.00    +0.000 HD
ENDBRANCH  95  97
ENDBRANCH  68  95
ENDBRANCH  66  67
ENDBRANCH  65  66
ENDBRANCH  64  65
ENDBRANCH  63  64
ENDBRANCH  62  63
ENDBRANCH  56  57
ENDBRANCH  54  55
ENDBRANCH  53  54
ENDBRANCH  52  53
ENDBRANCH  51  52
ENDBRANCH  50  51
ENDBRANCH   1  50
TORSDOF 37
