ligand
 OpenBabel01032309583D

 98106  0  0  1  0  0  0  0  0999 V2000
   39.5510   53.8560   25.2550 C   0  0  0  0  0  2  0  0  0  0  0  0
   38.8070   52.5260   25.0940 C   0  0  0  0  0  2  0  0  0  0  0  0
   38.8090   52.1510   23.7240 O   0  0  0  0  0  0  0  0  0  0  0  0
   37.6300   51.4710   23.3150 C   0  0  0  0  0  2  0  0  0  0  0  0
   36.7190   52.4430   22.5550 C   0  0  0  0  0  2  0  0  0  0  0  0
   35.6030   52.7780   23.3670 O   0  0  0  0  0  0  0  0  0  0  0  0
   34.3660   52.7850   22.6650 C   0  0  0  0  0  2  0  0  0  0  0  0
   34.5140   51.9820   21.3670 C   0  0  0  0  0  2  0  0  0  0  0  0
   33.7730   50.7730   21.4690 O   0  0  0  0  0  0  0  0  0  0  0  0
   34.5620   49.6040   21.2820 C   0  0  0  0  0  2  0  0  0  0  0  0
   33.7630   48.3660   21.7100 C   0  0  0  0  0  2  0  0  0  0  0  0
   34.0830   47.2790   20.8510 O   0  0  0  0  0  0  0  0  0  0  0  0
   34.0820   47.6180   19.4710 C   0  0  0  0  0  2  0  0  0  0  0  0
   34.3810   46.3470   18.6530 C   0  0  0  0  0  2  0  0  0  0  0  0
   31.9920   46.0120   18.2200 N   0  0  0  0  0  0  0  0  0  0  0  0
   33.2380   45.9460   17.7150 C   0  0  0  0  0  0  0  0  0  0  0  0
   33.4780   45.6040   16.5570 O   0  0  0  0  0  0  0  0  0  0  0  0
   31.8640   46.3060   19.1770 H   0  0  0  0  0  0  0  0  0  0  0  0
   30.7560   45.7480   17.4680 C   0  0  2  0  0  3  0  0  0  0  0  0
   28.0090   48.4640   16.7080 C   0  0  2  0  0  3  0  0  0  0  0  0
   27.4530   48.6450   15.2890 C   0  0  0  0  0  2  0  0  0  0  0  0
   29.7770   46.9420   17.6660 C   0  0  0  0  0  0  0  0  0  0  0  0
   27.7010   47.2860   14.6520 C   0  0  2  0  0  3  0  0  0  0  0  0
   29.0240   46.8340   15.2680 C   0  0  0  0  0  2  0  0  0  0  0  0
   28.9670   47.3360   16.6460 N   0  0  0  0  0  0  0  0  0  0  0  0
   29.7690   47.4920   18.7710 O   0  0  0  0  0  0  0  0  0  0  0  0
   26.0480   47.3680   17.5680 O   0  0  0  0  0  0  0  0  0  0  0  0
   26.9020   48.2360   17.7580 C   0  0  0  0  0  0  0  0  0  0  0  0
   26.9410   49.0460   18.8290 N   0  0  0  0  0  0  0  0  0  0  0  0
   27.7050   49.7020   18.9110 H   0  0  0  0  0  0  0  0  0  0  0  0
   25.9800   49.0270   19.9320 C   0  0  0  0  0  2  0  0  0  0  0  0
   27.3960   50.7650   23.6200 C   0  0  0  0  0  0  0  0  0  0  0  0
   27.6760   49.4290   23.3210 C   0  0  0  0  0  3  0  0  0  0  0  0
   27.2210   48.8700   22.1300 C   0  0  0  0  0  3  0  0  0  0  0  0
   26.1980   50.9790   21.5330 C   0  0  0  0  0  3  0  0  0  0  0  0
   26.4910   49.6470   21.2280 C   0  0  0  0  0  0  0  0  0  0  0  0
   26.6560   51.5370   22.7230 C   0  0  0  0  0  3  0  0  0  0  0  0
   28.4580   51.8630   27.1910 C   0  0  0  0  0  3  0  0  0  0  0  0
   27.8880   51.3750   24.8880 C   0  0  0  0  0  0  0  0  0  0  0  0
   28.4730   52.6230   25.1480 C   0  0  0  0  0  0  0  0  0  0  0  0
   28.8190   53.7280   24.1720 C   0  0  0  0  0  1  0  0  0  0  0  0
   28.7730   52.8640   26.4130 N   0  0  0  0  0  0  0  0  0  0  0  0
   27.7480   50.5050   26.3960 S   0  0  0  0  0  0  0  0  0  0  0  0
   27.7410   47.3440   13.2410 O   0  0  0  0  0  0  0  0  0  0  0  0
   27.3380   46.5440   12.8920 H   0  0  0  0  0  0  0  0  0  0  0  0
   28.5890   44.4720   17.9200 C   0  0  0  0  0  1  0  0  0  0  0  0
   30.1310   44.3400   17.8120 C   0  0  0  0  0  0  0  0  0  0  0  0
   30.6410   43.8060   19.1770 C   0  0  0  0  0  1  0  0  0  0  0  0
   30.4390   43.2760   16.7240 C   0  0  0  0  0  1  0  0  0  0  0  0
   39.3270   54.6510   24.1010 O   0  0  0  0  0  0  0  0  0  0  0  0
   38.2090   55.5240   24.2070 C   0  0  0  0  0  2  0  0  0  0  0  0
   37.8050   55.9720   22.7980 C   0  0  0  0  0  2  0  0  0  0  0  0
   37.2690   57.2930   22.8690 O   0  0  0  0  0  0  0  0  0  0  0  0
   36.7440   57.8260   21.6560 C   0  0  0  0  0  2  0  0  0  0  0  0
   35.3230   57.4930   21.4390 C   0  0  0  0  0  0  0  0  0  0  0  0
   34.1610   57.1870   21.2180 C   0  0  0  0  0  0  0  0  0  0  0  0
   32.7910   56.7930   20.9270 C   0  0  0  0  0  0  0  0  0  0  0  0
   31.9570   57.6480   20.2060 C   0  0  0  0  0  3  0  0  0  0  0  0
   30.6450   57.2680   19.9350 C   0  0  0  0  0  3  0  0  0  0  0  0
   32.3160   55.5580   21.3720 C   0  0  0  0  0  3  0  0  0  0  0  0
   31.0030   55.1810   21.1000 C   0  0  0  0  0  3  0  0  0  0  0  0
   30.1560   56.0390   20.3800 C   0  0  0  0  0  0  0  0  0  0  0  0
   28.8400   55.7530   20.0710 O   0  0  0  0  0  0  0  0  0  0  0  0
   28.1760   54.6910   20.7520 C   0  0  0  0  0  2  0  0  0  0  0  0
   26.6910   54.6750   20.3530 C   0  0  0  0  0  2  0  0  0  0  0  0
   25.9210   55.9260   20.8150 C   0  0  0  0  0  2  0  0  0  0  0  0
   24.6420   56.1300   20.0250 C   0  0  0  0  0  0  0  0  0  0  0  0
   23.2810   55.9720   20.3690 C   0  0  0  0  0  0  0  0  0  0  0  0
   24.7020   56.6440   18.3560 S   0  0  0  0  0  0  0  0  0  0  0  0
   22.9690   56.6150   18.2830 C   0  0  0  0  0  0  0  0  0  0  0  0
   22.4100   56.2490   19.4080 N   0  0  0  0  0  0  0  0  0  0  0  0
   22.2880   56.9680   17.1410 N   0  0  0  0  0  0  0  0  0  0  0  0
   22.9310   57.2030   15.8430 C   0  0  0  0  0  2  0  0  0  0  0  0
   22.2300   58.3320   15.0650 C   0  0  0  0  0  2  0  0  0  0  0  0
   20.7200   58.1570   14.9960 C   0  0  0  0  0  0  0  0  0  0  0  0
   20.0580   57.2990   15.9030 C   0  0  0  0  0  0  0  0  0  0  0  0
   20.9000   56.5190   16.9320 C   0  0  0  0  0  2  0  0  0  0  0  0
   19.9840   58.8580   14.0380 C   0  0  0  0  0  3  0  0  0  0  0  0
   18.6080   58.7140   13.9440 C   0  0  0  0  0  3  0  0  0  0  0  0
   17.9470   57.8590   14.8150 C   0  0  0  0  0  3  0  0  0  0  0  0
   18.6520   57.1470   15.7940 C   0  0  0  0  0  0  0  0  0  0  0  0
   17.8730   56.2360   16.7140 C   0  0  0  0  0  0  0  0  0  0  0  0
   17.0600   56.7010   17.5160 O   0  0  0  0  0  0  0  0  0  0  0  0
   18.1410   54.9190   16.5590 N   0  0  0  0  0  0  0  0  0  0  0  0
   17.5760   53.8670   17.2650 C   0  0  0  0  0  0  0  0  0  0  0  0
   16.7160   53.9480   18.2500 N   0  0  0  0  0  0  0  0  0  0  0  0
   16.3680   52.7150   18.7040 C   0  0  0  0  0  0  0  0  0  0  0  0
   16.9930   51.6270   18.0350 C   0  0  0  0  0  0  0  0  0  0  0  0
   18.0600   52.2590   16.7870 S   0  0  0  0  0  0  0  0  0  0  0  0
   15.4650   52.4690   19.7500 C   0  0  0  0  0  3  0  0  0  0  0  0
   15.2050   51.1440   20.1030 C   0  0  0  0  0  3  0  0  0  0  0  0
   15.8220   50.0810   19.4410 C   0  0  0  0  0  3  0  0  0  0  0  0
   16.7240   50.3010   18.4000 C   0  0  0  0  0  3  0  0  0  0  0  0
   18.8140   54.6620   15.8510 H   0  0  0  0  0  0  0  0  0  0  0  0
   22.7810   55.5000   21.6500 C   0  0  0  0  0  0  0  0  0  0  0  0
   23.5170   55.2070   22.5920 O   0  0  0  0  0  0  0  0  0  0  0  0
   21.4150   55.4280   21.7210 O   0  0  0  0  0  0  0  0  0  0  0  0
   20.9910   55.6740   20.8970 H   0  0  0  0  0  0  0  0  0  0  0  0
  2  1  1  0  0  0  0
  3  2  1  0  0  0  0
  4  3  1  0  0  0  0
  5  4  1  0  0  0  0
  5  6  1  0  0  0  0
  7  6  1  0  0  0  0
  8  9  1  0  0  0  0
  8  7  1  0  0  0  0
 10  9  1  0  0  0  0
 10 11  1  0  0  0  0
 12 11  1  0  0  0  0
 13 12  1  0  0  0  0
 14 13  1  0  0  0  0
 15 18  1  0  0  0  0
 16 15  1  0  0  0  0
 16 14  1  0  0  0  0
 17 16  2  0  0  0  0
 19 22  1  1  0  0  0
 19 47  1  0  0  0  0
 19 15  1  0  0  0  0
 20 28  1  1  0  0  0
 21 20  1  0  0  0  0
 22 26  2  0  0  0  0
 23 44  1  6  0  0  0
 23 24  1  0  0  0  0
 23 21  1  0  0  0  0
 24 25  1  0  0  0  0
 25 20  1  0  0  0  0
 25 22  1  0  0  0  0
 27 28  2  0  0  0  0
 28 29  1  0  0  0  0
 29 30  1  0  0  0  0
 29 31  1  0  0  0  0
 31 36  1  0  0  0  0
 32 39  1  0  0  0  0
 33 32  1  0  0  0  0
 34 33  2  0  0  0  0
 35 37  1  0  0  0  0
 36 35  2  0  0  0  0
 36 34  1  0  0  0  0
 37 32  2  0  0  0  0
 39 40  2  0  0  0  0
 39 43  1  0  0  0  0
 40 42  1  0  0  0  0
 41 40  1  0  0  0  0
 42 38  2  0  0  0  0
 43 38  1  0  0  0  0
 45 44  1  0  0  0  0
 47 46  1  0  0  0  0
 47 48  1  0  0  0  0
 49 47  1  0  0  0  0
 50 51  1  0  0  0  0
 50  1  1  0  0  0  0
 52 53  1  0  0  0  0
 52 51  1  0  0  0  0
 54 53  1  0  0  0  0
 55 54  1  0  0  0  0
 56 55  3  0  0  0  0
 57 56  1  0  0  0  0
 57 60  1  0  0  0  0
 58 57  2  0  0  0  0
 59 58  1  0  0  0  0
 59 62  2  0  0  0  0
 61 60  2  0  0  0  0
 62 61  1  0  0  0  0
 63 62  1  0  0  0  0
 63 64  1  0  0  0  0
 65 64  1  0  0  0  0
 65 66  1  0  0  0  0
 67 68  2  0  0  0  0
 67 66  1  0  0  0  0
 68 95  1  0  0  0  0
 69 67  1  0  0  0  0
 70 69  1  0  0  0  0
 70 71  2  0  0  0  0
 71 68  1  0  0  0  0
 72 70  1  0  0  0  0
 73 72  1  0  0  0  0
 74 73  1  0  0  0  0
 75 74  1  0  0  0  0
 75 76  1  0  0  0  0
 76 77  1  0  0  0  0
 77 72  1  0  0  0  0
 78 75  2  0  0  0  0
 79 78  1  0  0  0  0
 79 80  2  0  0  0  0
 80 81  1  0  0  0  0
 81 76  2  0  0  0  0
 81 82  1  0  0  0  0
 82 83  2  0  0  0  0
 84 82  1  0  0  0  0
 84 85  1  0  0  0  0
 85 86  2  0  0  0  0
 86 87  1  0  0  0  0
 87 90  1  0  0  0  0
 88 93  1  0  0  0  0
 88 87  2  0  0  0  0
 89 85  1  0  0  0  0
 89 88  1  0  0  0  0
 90 91  2  0  0  0  0
 92 91  1  0  0  0  0
 93 92  2  0  0  0  0
 94 84  1  0  0  0  0
 95 97  1  0  0  0  0
 95 96  2  0  0  0  0
 98 97  1  0  0  0  0
M  END
>  <MODEL>
1

>  <REMARK>
 VINA RESULT:    -9.162      0.000      0.000
 INTER + INTRA:         -35.377
 INTER:                 -30.846
 INTRA:                  -4.531
 UNBOUND:                -6.933
  Name = ligand
  41 active torsions:
  status: ('A' for Active; 'I' for Inactive)
    1  A    between atoms: C_2  and  C_17
    2  A    between atoms: C_6  and  C_12
    3  A    between atoms: C_8  and  C_9
    4  A    between atoms: C_9  and  C_27
    5  A    between atoms: C_9  and  N_30
    6  A    between atoms: C_10  and  C_27
    7  A    between atoms: N_13  and  C_14
    8  A    between atoms: C_14  and  C_15
    9  A    between atoms: C_18  and  C_19
   10  A    between atoms: C_22  and  O_23
   11  A    between atoms: C_27  and  C_28
   12  A    between atoms: C_27  and  C_29
   13  A    between atoms: C_31  and  C_33
   14  A    between atoms: C_33  and  C_34
   15  A    between atoms: C_34  and  O_35
   16  A    between atoms: O_35  and  C_36
   17  A    between atoms: C_36  and  C_37
   18  A    between atoms: C_37  and  O_38
   19  A    between atoms: O_38  and  C_39
   20  A    between atoms: C_39  and  C_40
   21  A    between atoms: C_40  and  O_41
   22  A    between atoms: O_41  and  C_42
   23  A    between atoms: C_42  and  C_43
   24  A    between atoms: C_43  and  O_44
   25  A    between atoms: O_44  and  C_45
   26  A    between atoms: C_45  and  C_46
   27  A    between atoms: C_46  and  O_47
   28  A    between atoms: O_47  and  C_48
   29  A    between atoms: C_48  and  C_49
   30  A    between atoms: C_49  and  O_50
   31  A    between atoms: O_50  and  C_51
   32  A    between atoms: C_51  and  C_52
   33  A    between atoms: C_53  and  C_54
   34  A    between atoms: C_59  and  O_60
   35  A    between atoms: O_60  and  C_61
   36  A    between atoms: C_61  and  C_62
   37  A    between atoms: C_62  and  C_63
   38  A    between atoms: C_63  and  C_64
   39  A    between atoms: CA_65  and  C_66
   40  A    between atoms: C_66  and  OXT_68
   41  A    between atoms: C_81  and  C_82
                            x       y       z     vdW  Elec       q    Type
                         _______ _______ _______ _____ _____    ______ ____

>  <TORSDO>
F 37

$$$$
ligand
 OpenBabel01032309583D

 98106  0  0  1  0  0  0  0  0999 V2000
   18.3100   55.1890   17.1870 C   0  0  0  0  0  2  0  0  0  0  0  0
   17.3360   54.4350   18.0990 C   0  0  0  0  0  2  0  0  0  0  0  0
   16.9040   53.2500   17.4460 O   0  0  0  0  0  0  0  0  0  0  0  0
   16.3180   52.2940   18.3200 C   0  0  0  0  0  2  0  0  0  0  0  0
   16.9970   52.3790   19.6930 C   0  0  0  0  0  2  0  0  0  0  0  0
   16.7900   51.1630   20.3990 O   0  0  0  0  0  0  0  0  0  0  0  0
   16.9370   51.2880   21.8080 C   0  0  0  0  0  2  0  0  0  0  0  0
   16.5420   52.7060   22.2370 C   0  0  0  0  0  2  0  0  0  0  0  0
   16.9900   52.9430   23.5650 O   0  0  0  0  0  0  0  0  0  0  0  0
   16.3670   54.0610   24.1850 C   0  0  0  0  0  2  0  0  0  0  0  0
   17.2510   54.5790   25.3270 C   0  0  0  0  0  2  0  0  0  0  0  0
   17.5170   55.9610   25.1270 O   0  0  0  0  0  0  0  0  0  0  0  0
   18.5760   56.4650   25.9290 C   0  0  0  0  0  2  0  0  0  0  0  0
   18.9230   55.4130   26.9990 C   0  0  0  0  0  2  0  0  0  0  0  0
   21.0850   55.0170   28.0840 N   0  0  0  0  0  0  0  0  0  0  0  0
   20.0440   55.8570   27.9460 C   0  0  0  0  0  0  0  0  0  0  0  0
   19.9750   56.9440   28.5210 O   0  0  0  0  0  0  0  0  0  0  0  0
   21.0830   54.1430   27.5790 H   0  0  0  0  0  0  0  0  0  0  0  0
   22.2950   55.2850   28.8770 C   0  0  2  0  0  3  0  0  0  0  0  0
   25.1710   57.4440   27.2740 C   0  0  2  0  0  3  0  0  0  0  0  0
   25.4570   58.8670   27.7720 C   0  0  0  0  0  2  0  0  0  0  0  0
   23.4410   55.7270   27.9210 C   0  0  0  0  0  0  0  0  0  0  0  0
   24.9130   58.8450   29.1920 C   0  0  2  0  0  3  0  0  0  0  0  0
   23.6880   57.9370   29.0970 C   0  0  0  0  0  2  0  0  0  0  0  0
   24.0800   56.9110   28.1220 N   0  0  0  0  0  0  0  0  0  0  0  0
   23.7370   54.9610   26.9990 O   0  0  0  0  0  0  0  0  0  0  0  0
   27.3210   56.7610   28.1080 O   0  0  0  0  0  0  0  0  0  0  0  0
   26.4230   56.5420   27.2930 C   0  0  0  0  0  0  0  0  0  0  0  0
   26.4490   55.5660   26.3710 N   0  0  0  0  0  0  0  0  0  0  0  0
   25.6450   55.4450   25.7720 H   0  0  0  0  0  0  0  0  0  0  0  0
   27.5440   54.6140   26.1890 C   0  0  0  0  0  2  0  0  0  0  0  0
   27.1280   50.9650   28.4580 C   0  0  0  0  0  0  0  0  0  0  0  0
   27.7620   50.9490   27.2120 C   0  0  0  0  0  3  0  0  0  0  0  0
   27.8980   52.1270   26.4820 C   0  0  0  0  0  3  0  0  0  0  0  0
   26.7610   53.3430   28.2370 C   0  0  0  0  0  3  0  0  0  0  0  0
   27.4070   53.3280   26.9990 C   0  0  0  0  0  0  0  0  0  0  0  0
   26.6280   52.1650   28.9670 C   0  0  0  0  0  3  0  0  0  0  0  0
   27.3610   47.6520   30.4720 C   0  0  0  0  0  3  0  0  0  0  0  0
   26.9880   49.7120   29.2510 C   0  0  0  0  0  0  0  0  0  0  0  0
   25.8520   49.0320   29.7160 C   0  0  0  0  0  0  0  0  0  0  0  0
   24.3950   49.4180   29.5730 C   0  0  0  0  0  1  0  0  0  0  0  0
   26.0840   47.9120   30.3780 N   0  0  0  0  0  0  0  0  0  0  0  0
   28.4060   48.8100   29.7290 S   0  0  0  0  0  0  0  0  0  0  0  0
   24.6060   60.1350   29.6800 O   0  0  0  0  0  0  0  0  0  0  0  0
   24.8540   60.7800   29.0130 H   0  0  0  0  0  0  0  0  0  0  0  0
   22.8220   52.7880   28.9790 C   0  0  0  0  0  1  0  0  0  0  0  0
   22.6740   54.0810   29.8240 C   0  0  0  0  0  0  0  0  0  0  0  0
   21.5680   53.8140   30.8800 C   0  0  0  0  0  1  0  0  0  0  0  0
   24.0160   54.3150   30.5670 C   0  0  0  0  0  1  0  0  0  0  0  0
   17.5890   55.7300   16.0910 O   0  0  0  0  0  0  0  0  0  0  0  0
   18.0210   55.2530   14.8230 C   0  0  0  0  0  2  0  0  0  0  0  0
   17.7070   56.3210   13.7680 C   0  0  0  0  0  2  0  0  0  0  0  0
   18.9100   56.6530   13.0750 O   0  0  0  0  0  0  0  0  0  0  0  0
   19.5580   57.8560   13.4810 C   0  0  0  0  0  2  0  0  0  0  0  0
   20.3830   57.6950   14.6940 C   0  0  0  0  0  0  0  0  0  0  0  0
   21.0800   57.5130   15.6800 C   0  0  0  0  0  0  0  0  0  0  0  0
   21.9270   57.2600   16.8360 C   0  0  0  0  0  0  0  0  0  0  0  0
   23.2970   57.5140   16.7660 C   0  0  0  0  0  3  0  0  0  0  0  0
   24.1030   57.2650   17.8740 C   0  0  0  0  0  3  0  0  0  0  0  0
   21.3630   56.7610   18.0120 C   0  0  0  0  0  3  0  0  0  0  0  0
   22.1730   56.5120   19.1170 C   0  0  0  0  0  3  0  0  0  0  0  0
   23.5530   56.7600   19.0530 C   0  0  0  0  0  0  0  0  0  0  0  0
   24.4330   56.5370   20.0950 O   0  0  0  0  0  0  0  0  0  0  0  0
   24.1400   55.5220   21.0530 C   0  0  0  0  0  2  0  0  0  0  0  0
   24.3480   54.1390   20.4150 C   0  0  0  0  0  2  0  0  0  0  0  0
   25.5380   54.0890   19.4390 C   0  0  0  0  0  2  0  0  0  0  0  0
   26.8680   54.2290   20.1560 C   0  0  0  0  0  0  0  0  0  0  0  0
   27.4710   53.4780   21.1880 C   0  0  0  0  0  0  0  0  0  0  0  0
   27.9650   55.5250   19.7450 S   0  0  0  0  0  0  0  0  0  0  0  0
   29.0890   54.9540   20.9360 C   0  0  0  0  0  0  0  0  0  0  0  0
   28.6690   53.8930   21.5770 N   0  0  0  0  0  0  0  0  0  0  0  0
   30.3020   55.5710   21.1420 N   0  0  0  0  0  0  0  0  0  0  0  0
   30.6780   56.8560   20.5410 C   0  0  0  0  0  2  0  0  0  0  0  0
   32.1750   56.8930   20.1850 C   0  0  0  0  0  2  0  0  0  0  0  0
   33.0700   56.4490   21.3340 C   0  0  0  0  0  0  0  0  0  0  0  0
   32.5350   55.7030   22.4080 C   0  0  0  0  0  0  0  0  0  0  0  0
   31.0270   55.3860   22.4100 C   0  0  0  0  0  2  0  0  0  0  0  0
   34.4290   56.7710   21.3180 C   0  0  0  0  0  3  0  0  0  0  0  0
   35.2680   56.3880   22.3540 C   0  0  0  0  0  3  0  0  0  0  0  0
   34.7530   55.6730   23.4250 C   0  0  0  0  0  3  0  0  0  0  0  0
   33.3970   55.3250   23.4700 C   0  0  0  0  0  0  0  0  0  0  0  0
   32.8990   54.5420   24.6630 C   0  0  0  0  0  0  0  0  0  0  0  0
   33.1720   53.3470   24.7860 O   0  0  0  0  0  0  0  0  0  0  0  0
   32.1700   55.2650   25.5440 N   0  0  0  0  0  0  0  0  0  0  0  0
   31.5940   54.8060   26.7190 C   0  0  0  0  0  0  0  0  0  0  0  0
   31.5990   53.5780   27.1750 N   0  0  0  0  0  0  0  0  0  0  0  0
   30.9430   53.4890   28.3630 C   0  0  0  0  0  0  0  0  0  0  0  0
   30.4040   54.7120   28.8470 C   0  0  0  0  0  0  0  0  0  0  0  0
   30.7750   55.9950   27.7020 S   0  0  0  0  0  0  0  0  0  0  0  0
   30.7780   52.3080   29.1030 C   0  0  0  0  0  3  0  0  0  0  0  0
   30.0810   52.3750   30.3110 C   0  0  0  0  0  3  0  0  0  0  0  0
   29.5560   53.5800   30.7800 C   0  0  0  0  0  3  0  0  0  0  0  0
   29.7060   54.7650   30.0610 C   0  0  0  0  0  3  0  0  0  0  0  0
   32.0340   56.2450   25.3420 H   0  0  0  0  0  0  0  0  0  0  0  0
   26.8730   52.3390   21.8670 C   0  0  0  0  0  0  0  0  0  0  0  0
   26.8780   52.2080   23.0900 O   0  0  0  0  0  0  0  0  0  0  0  0
   26.2860   51.4330   21.0230 O   0  0  0  0  0  0  0  0  0  0  0  0
   25.3860   51.2220   21.2790 H   0  0  0  0  0  0  0  0  0  0  0  0
  1  2  1  0  0  0  0
  3  2  1  0  0  0  0
  3  4  1  0  0  0  0
  4  5  1  0  0  0  0
  5  6  1  0  0  0  0
  6  7  1  0  0  0  0
  7  8  1  0  0  0  0
  8  9  1  0  0  0  0
  9 10  1  0  0  0  0
 10 11  1  0  0  0  0
 12 11  1  0  0  0  0
 12 13  1  0  0  0  0
 13 14  1  0  0  0  0
 14 16  1  0  0  0  0
 15 19  1  0  0  0  0
 16 15  1  0  0  0  0
 16 17  2  0  0  0  0
 18 15  1  0  0  0  0
 19 22  1  6  0  0  0
 19 47  1  0  0  0  0
 20 28  1  1  0  0  0
 20 21  1  0  0  0  0
 20 25  1  0  0  0  0
 21 23  1  0  0  0  0
 22 25  1  0  0  0  0
 23 44  1  6  0  0  0
 24 23  1  0  0  0  0
 25 24  1  0  0  0  0
 26 22  2  0  0  0  0
 28 27  2  0  0  0  0
 29 28  1  0  0  0  0
 30 29  1  0  0  0  0
 31 29  1  0  0  0  0
 31 36  1  0  0  0  0
 32 37  1  0  0  0  0
 32 39  1  0  0  0  0
 33 32  2  0  0  0  0
 34 36  2  0  0  0  0
 34 33  1  0  0  0  0
 35 37  2  0  0  0  0
 36 35  1  0  0  0  0
 39 40  2  0  0  0  0
 39 43  1  0  0  0  0
 40 42  1  0  0  0  0
 41 40  1  0  0  0  0
 42 38  2  0  0  0  0
 43 38  1  0  0  0  0
 45 44  1  0  0  0  0
 46 47  1  0  0  0  0
 47 49  1  0  0  0  0
 47 48  1  0  0  0  0
 50  1  1  0  0  0  0
 51 50  1  0  0  0  0
 52 51  1  0  0  0  0
 53 54  1  0  0  0  0
 53 52  1  0  0  0  0
 54 55  1  0  0  0  0
 55 56  3  0  0  0  0
 56 57  1  0  0  0  0
 57 60  1  0  0  0  0
 58 57  2  0  0  0  0
 58 59  1  0  0  0  0
 59 62  2  0  0  0  0
 60 61  2  0  0  0  0
 62 61  1  0  0  0  0
 62 63  1  0  0  0  0
 63 64  1  0  0  0  0
 65 64  1  0  0  0  0
 66 67  1  0  0  0  0
 66 65  1  0  0  0  0
 67 68  2  0  0  0  0
 68 71  1  0  0  0  0
 68 95  1  0  0  0  0
 69 67  1  0  0  0  0
 69 70  1  0  0  0  0
 70 72  1  0  0  0  0
 70 71  2  0  0  0  0
 72 77  1  0  0  0  0
 73 72  1  0  0  0  0
 74 73  1  0  0  0  0
 74 75  1  0  0  0  0
 75 76  1  0  0  0  0
 76 77  1  0  0  0  0
 76 81  2  0  0  0  0
 78 75  2  0  0  0  0
 78 79  1  0  0  0  0
 79 80  2  0  0  0  0
 80 81  1  0  0  0  0
 81 82  1  0  0  0  0
 82 83  2  0  0  0  0
 82 84  1  0  0  0  0
 84 85  1  0  0  0  0
 85 86  2  0  0  0  0
 85 89  1  0  0  0  0
 86 87  1  0  0  0  0
 87 88  2  0  0  0  0
 87 90  1  0  0  0  0
 88 93  1  0  0  0  0
 89 88  1  0  0  0  0
 90 91  2  0  0  0  0
 91 92  1  0  0  0  0
 93 92  2  0  0  0  0
 94 84  1  0  0  0  0
 95 96  2  0  0  0  0
 97 98  1  0  0  0  0
 97 95  1  0  0  0  0
M  END
>  <MODEL>
2

>  <REMARK>
 VINA RESULT:    -8.964      5.321     14.920
 INTER + INTRA:         -34.761
 INTER:                 -27.828
 INTRA:                  -6.933
 UNBOUND:                -6.933
  Name = ligand
  41 active torsions:
  status: ('A' for Active; 'I' for Inactive)
    1  A    between atoms: C_2  and  C_17
    2  A    between atoms: C_6  and  C_12
    3  A    between atoms: C_8  and  C_9
    4  A    between atoms: C_9  and  C_27
    5  A    between atoms: C_9  and  N_30
    6  A    between atoms: C_10  and  C_27
    7  A    between atoms: N_13  and  C_14
    8  A    between atoms: C_14  and  C_15
    9  A    between atoms: C_18  and  C_19
   10  A    between atoms: C_22  and  O_23
   11  A    between atoms: C_27  and  C_28
   12  A    between atoms: C_27  and  C_29
   13  A    between atoms: C_31  and  C_33
   14  A    between atoms: C_33  and  C_34
   15  A    between atoms: C_34  and  O_35
   16  A    between atoms: O_35  and  C_36
   17  A    between atoms: C_36  and  C_37
   18  A    between atoms: C_37  and  O_38
   19  A    between atoms: O_38  and  C_39
   20  A    between atoms: C_39  and  C_40
   21  A    between atoms: C_40  and  O_41
   22  A    between atoms: O_41  and  C_42
   23  A    between atoms: C_42  and  C_43
   24  A    between atoms: C_43  and  O_44
   25  A    between atoms: O_44  and  C_45
   26  A    between atoms: C_45  and  C_46
   27  A    between atoms: C_46  and  O_47
   28  A    between atoms: O_47  and  C_48
   29  A    between atoms: C_48  and  C_49
   30  A    between atoms: C_49  and  O_50
   31  A    between atoms: O_50  and  C_51
   32  A    between atoms: C_51  and  C_52
   33  A    between atoms: C_53  and  C_54
   34  A    between atoms: C_59  and  O_60
   35  A    between atoms: O_60  and  C_61
   36  A    between atoms: C_61  and  C_62
   37  A    between atoms: C_62  and  C_63
   38  A    between atoms: C_63  and  C_64
   39  A    between atoms: CA_65  and  C_66
   40  A    between atoms: C_66  and  OXT_68
   41  A    between atoms: C_81  and  C_82
                            x       y       z     vdW  Elec       q    Type
                         _______ _______ _______ _____ _____    ______ ____

>  <TORSDO>
F 37

$$$$
