ligand
                    3D
 Structure written by MMmdl.
173181  0  0  1  0            999 V2000
   25.3172   57.8413   27.9412 C   0  0  0  0  0  0
   28.5072   55.6275   27.8622 C   0  0  0  0  0  0
   29.6674   56.4127   27.9708 C   0  0  0  0  0  0
   30.9245   55.8116   27.9738 C   0  0  0  0  0  0
   29.8861   53.6404   27.7737 C   0  0  0  0  0  0
   33.6237   53.0782   24.3092 C   0  0  1  0  0  0
   33.5225   54.2427   23.3166 C   0  0  0  0  0  0
   33.1725   50.5894   23.9761 C   0  0  0  0  0  0
   32.7356   49.4583   23.0019 C   0  0  2  0  0  0
   30.8651   48.2581   24.3630 C   0  0  0  0  0  0
   31.4667   52.8995   25.3373 O   0  0  0  0  0  0
   32.6411   53.2383   25.4896 C   0  0  0  0  0  0
   33.1624   53.7511   26.6198 N   0  0  0  0  0  0
   32.4138   53.7652   27.8858 C   0  0  0  0  0  0
   31.0352   54.4267   27.8729 C   0  0  0  0  0  0
   28.6290   54.2359   27.7634 C   0  0  0  0  0  0
   27.1359   56.2852   27.8542 C   0  0  0  0  0  0
   25.8292   55.7311   27.7053 C   0  0  0  0  0  0
   25.4021   54.2916   27.5038 C   0  0  0  0  0  0
   24.8640   56.6405   27.7549 N   0  0  0  0  0  0
   27.0065   58.0232   28.0503 S   0  0  0  0  0  0
   34.0849   53.6154   22.0520 C   0  0  1  0  0  0
   35.5007   53.6112   22.0556 O   0  0  0  0  0  0
   33.5060   52.2014   22.0771 C   0  0  0  0  0  0
   33.3760   51.8531   23.5031 N   0  0  0  0  0  0
   33.2806   50.2912   25.1676 O   0  0  0  0  0  0
   31.2016   49.0871   23.0896 C   0  0  0  0  0  0
   30.2699   50.3312   23.1084 C   0  0  0  0  0  0
   30.8433   48.2016   21.8653 C   0  0  0  0  0  0
   33.5940   48.2883   23.2206 N   0  0  0  0  0  0
   34.8838   48.1831   22.8669 C   0  0  0  0  0  0
   35.4631   49.0379   22.1934 O   0  0  0  0  0  0
   35.6263   46.9298   23.3483 C   0  0  0  0  0  0
   37.1617   47.0237   23.2884 C   0  0  0  0  0  0
   37.5955   46.8901   21.9405 O   0  0  0  0  0  0
   38.8675   47.4694   21.6797 C   0  0  0  0  0  0
   39.3701   47.0360   20.2955 C   0  0  0  0  0  0
   38.4694   47.4698   19.2829 O   0  0  0  0  0  0
   38.9601   47.2842   17.9615 C   0  0  0  0  0  0
   37.8388   47.5309   16.9437 C   0  0  0  0  0  0
   36.9400   46.4261   16.9358 O   0  0  0  0  0  0
   35.9397   46.5099   15.9300 C   0  0  0  0  0  0
   35.0759   45.2372   15.9408 C   0  0  0  0  0  0
   34.1641   45.2317   17.0380 O   0  0  0  0  0  0
   33.7646   43.9212   17.4297 C   0  0  0  0  0  0
   32.5655   43.9520   18.3917 C   0  0  0  0  0  0
   31.3597   44.1753   17.6673 O   0  0  0  0  0  0
   30.1873   43.6948   18.3194 C   0  0  0  0  0  0
   28.9513   44.2874   17.6368 C   0  0  0  0  0  0
   27.7755   43.8019   18.2831 O   0  0  0  0  0  0
   26.5842   44.5502   18.0414 C   0  0  0  0  0  0
   26.5337   45.8379   18.7658 C   0  0  0  0  0  0
   26.4706   46.9387   19.2949 C   0  0  0  0  0  0
   26.3491   48.3292   19.7074 C   0  0  0  0  0  0
   25.8464   49.2640   18.8099 C   0  0  0  0  0  0
   25.7250   50.5936   19.1764 C   0  0  0  0  0  0
   26.7354   48.7285   20.9907 C   0  0  0  0  0  0
   26.6258   50.0735   21.3620 C   0  0  0  0  0  0
   26.1326   51.0125   20.4505 C   0  0  0  0  0  0
   26.0582   52.3508   20.8150 O   0  0  0  0  0  0
   26.1021   53.3404   19.7737 C   0  0  0  0  0  0
   26.9850   54.5539   20.1291 C   0  0  0  0  0  0
   26.2897   55.7813   20.7476 C   0  0  0  0  0  0
   24.9561   56.0989   20.0790 C   0  0  0  0  0  0
   23.6053   55.7874   20.4637 C   0  0  0  0  0  0
   23.1635   55.1029   21.6556 C   0  0  0  0  0  0
   21.9763   55.0018   21.9701 O   0  0  0  0  0  0
   24.2028   54.5996   22.3701 O   0  0  0  0  0  0
   24.8596   56.9907   18.5594 S   0  0  0  0  0  0
   23.1735   56.7541   18.5663 C   0  0  0  0  0  0
   22.6856   56.1696   19.6046 N   0  0  0  0  0  0
   22.4155   57.1624   17.4931 N   0  0  0  0  0  0
   22.8236   58.2438   16.5901 C   0  0  0  0  0  0
   22.1345   58.3009   15.2044 C   0  0  0  0  0  0
   20.7400   57.6848   15.1183 C   0  0  0  0  0  0
   20.1791   57.0671   16.2637 C   0  0  0  0  0  0
   20.9632   57.0901   17.5635 C   0  0  0  0  0  0
   20.0116   57.6905   13.9212 C   0  0  0  0  0  0
   18.7697   57.0822   13.8332 C   0  0  0  0  0  0
   18.2253   56.4427   14.9306 C   0  0  0  0  0  0
   18.9128   56.4256   16.1534 C   0  0  0  0  0  0
   18.3151   55.6801   17.3532 C   0  0  0  0  0  0
   18.6324   55.9732   18.5071 O   0  0  0  0  0  0
   17.4518   54.6824   17.0168 N   0  0  0  0  0  0
   16.9084   53.7686   17.9520 C   0  0  0  0  0  0
   16.1070   52.8321   17.5721 N   0  0  0  0  0  0
   15.7788   52.0059   18.6044 C   0  0  0  0  0  0
   16.3512   52.3566   19.8675 C   0  0  0  0  0  0
   17.3370   53.8020   19.6528 S   0  0  0  0  0  0
   14.9496   50.8830   18.4991 C   0  0  0  0  0  0
   14.7092   50.1371   19.6577 C   0  0  0  0  0  0
   15.2677   50.4919   20.8877 C   0  0  0  0  0  0
   16.0998   51.6046   21.0188 C   0  0  0  0  0  0
   24.6680   58.7011   28.0215 H   0  0  0  0  0  0
   29.5951   57.4857   28.0506 H   0  0  0  0  0  0
   31.8130   56.4213   28.0554 H   0  0  0  0  0  0
   29.9721   52.5654   27.6969 H   0  0  0  0  0  0
   34.6414   53.0583   24.7027 H   0  0  0  0  0  0
   34.0811   55.1130   23.6613 H   0  0  0  0  0  0
   32.4773   54.5240   23.1794 H   0  0  0  0  0  0
   32.9291   49.7753   21.9786 H   0  0  0  0  0  0
   29.8023   48.0149   24.4055 H   0  0  0  0  0  0
   31.1022   48.8016   25.2790 H   0  0  0  0  0  0
   31.3992   47.3097   24.3978 H   0  0  0  0  0  0
   34.1247   54.0538   26.6421 H   0  0  0  0  0  0
   32.3369   52.7432   28.2611 H   0  0  0  0  0  0
   33.0319   54.2843   28.6217 H   0  0  0  0  0  0
   27.7564   53.6176   27.6816 H   0  0  0  0  0  0
   25.8220   53.8727   26.5871 H   0  0  0  0  0  0
   24.3195   54.1974   27.4136 H   0  0  0  0  0  0
   25.6941   53.6601   28.3426 H   0  0  0  0  0  0
   33.7328   54.1546   21.1702 H   0  0  0  0  0  0
   35.8140   53.1200   21.2900 H   0  0  0  0  0  0
   34.1408   51.5084   21.5223 H   0  0  0  0  0  0
   32.5218   52.1986   21.6101 H   0  0  0  0  0  0
   29.2296   50.0591   22.9359 H   0  0  0  0  0  0
   30.5393   51.0868   22.3766 H   0  0  0  0  0  0
   30.2969   50.8326   24.0763 H   0  0  0  0  0  0
   29.7714   48.0160   21.7931 H   0  0  0  0  0  0
   31.3346   47.2336   21.9388 H   0  0  0  0  0  0
   31.1666   48.6016   20.9087 H   0  0  0  0  0  0
   33.1822   47.5640   23.7890 H   0  0  0  0  0  0
   35.2920   46.0850   22.7475 H   0  0  0  0  0  0
   35.3244   46.7194   24.3751 H   0  0  0  0  0  0
   37.6099   46.2206   23.8747 H   0  0  0  0  0  0
   37.4958   47.9627   23.7383 H   0  0  0  0  0  0
   39.5922   47.1651   22.4376 H   0  0  0  0  0  0
   38.7819   48.5566   21.7232 H   0  0  0  0  0  0
   39.4578   45.9484   20.2601 H   0  0  0  0  0  0
   40.3660   47.4522   20.1299 H   0  0  0  0  0  0
   39.3578   46.2760   17.8274 H   0  0  0  0  0  0
   39.7826   47.9794   17.7833 H   0  0  0  0  0  0
   38.2809   47.6628   15.9552 H   0  0  0  0  0  0
   37.3075   48.4527   17.1869 H   0  0  0  0  0  0
   36.4064   46.6110   14.9485 H   0  0  0  0  0  0
   35.3329   47.3994   16.0860 H   0  0  0  0  0  0
   35.7399   44.3690   15.9627 H   0  0  0  0  0  0
   34.5012   45.1682   15.0160 H   0  0  0  0  0  0
   34.6075   43.4333   17.9206 H   0  0  0  0  0  0
   33.5075   43.3102   16.5618 H   0  0  0  0  0  0
   32.6935   44.7252   19.1503 H   0  0  0  0  0  0
   32.5280   43.0008   18.9227 H   0  0  0  0  0  0
   30.1730   43.9724   19.3758 H   0  0  0  0  0  0
   30.1580   42.6038   18.2798 H   0  0  0  0  0  0
   28.9269   44.0106   16.5809 H   0  0  0  0  0  0
   29.0221   45.3768   17.6752 H   0  0  0  0  0  0
   25.7334   43.9548   18.3693 H   0  0  0  0  0  0
   26.4442   44.7345   16.9746 H   0  0  0  0  0  0
   25.5465   48.9517   17.8174 H   0  0  0  0  0  0
   25.3283   51.3029   18.4697 H   0  0  0  0  0  0
   27.1260   48.0027   21.6943 H   0  0  0  0  0  0
   26.9340   50.3878   22.3482 H   0  0  0  0  0  0
   25.0838   53.6103   19.5021 H   0  0  0  0  0  0
   26.5332   52.9686   18.8512 H   0  0  0  0  0  0
   27.4473   54.8960   19.2005 H   0  0  0  0  0  0
   27.8223   54.2353   20.7503 H   0  0  0  0  0  0
   26.9847   56.6022   20.5989 H   0  0  0  0  0  0
   26.2456   55.6926   21.8302 H   0  0  0  0  0  0
   23.8915   58.1867   16.4005 H   0  0  0  0  0  0
   22.6513   59.1769   17.1176 H   0  0  0  0  0  0
   22.1344   59.3270   14.8303 H   0  0  0  0  0  0
   22.7537   57.7390   14.5037 H   0  0  0  0  0  0
   20.8266   56.1066   18.0060 H   0  0  0  0  0  0
   20.5363   57.8139   18.2576 H   0  0  0  0  0  0
   20.4292   58.1693   13.0468 H   0  0  0  0  0  0
   18.2303   57.0992   12.8968 H   0  0  0  0  0  0
   17.2623   55.9602   14.8377 H   0  0  0  0  0  0
   17.2209   54.5472   16.0477 H   0  0  0  0  0  0
   14.5138   50.6022   17.5571 H   0  0  0  0  0  0
   14.0755   49.2651   19.6014 H   0  0  0  0  0  0
   15.0537   49.8903   21.7578 H   0  0  0  0  0  0
   16.5303   51.8711   21.9723 H   0  0  0  0  0  0
   25.0476   54.7082   21.9249 H   0  0  0  0  0  0
  1 20  2  0  0  0
  1 21  1  0  0  0
  1 94  1  0  0  0
  2 16  1  0  0  0
  2 17  1  0  0  0
  2  3  2  0  0  0
  3  4  1  0  0  0
  3 95  1  0  0  0
  4 15  2  0  0  0
  4 96  1  0  0  0
  5 15  1  0  0  0
  5 16  2  0  0  0
  5 97  1  0  0  0
  6 12  1  0  0  0
  6  7  1  0  0  0
  6 25  1  0  0  0
  6 98  1  0  0  0
  7 22  1  0  0  0
  7 99  1  0  0  0
  7100  1  0  0  0
  8  9  1  0  0  0
  8 25  1  0  0  0
  8 26  2  0  0  0
  9 27  1  0  0  0
  9 30  1  0  0  0
  9101  1  0  0  0
 10 27  1  0  0  0
 10102  1  0  0  0
 10103  1  0  0  0
 10104  1  0  0  0
 11 12  2  0  0  0
 12 13  1  0  0  0
 13 14  1  0  0  0
 13105  1  0  0  0
 14 15  1  0  0  0
 14106  1  0  0  0
 14107  1  0  0  0
 16108  1  0  0  0
 17 18  2  0  0  0
 17 21  1  0  0  0
 18 19  1  0  0  0
 18 20  1  0  0  0
 19109  1  0  0  0
 19110  1  0  0  0
 19111  1  0  0  0
 22 24  1  0  0  0
 22 23  1  0  0  0
 22112  1  0  0  0
 23113  1  0  0  0
 24 25  1  0  0  0
 24114  1  0  0  0
 24115  1  0  0  0
 27 28  1  0  0  0
 27 29  1  0  0  0
 28116  1  0  0  0
 28117  1  0  0  0
 28118  1  0  0  0
 29119  1  0  0  0
 29120  1  0  0  0
 29121  1  0  0  0
 30 31  1  0  0  0
 30122  1  0  0  0
 31 32  2  0  0  0
 31 33  1  0  0  0
 33 34  1  0  0  0
 33123  1  0  0  0
 33124  1  0  0  0
 34 35  1  0  0  0
 34125  1  0  0  0
 34126  1  0  0  0
 35 36  1  0  0  0
 36 37  1  0  0  0
 36127  1  0  0  0
 36128  1  0  0  0
 37 38  1  0  0  0
 37129  1  0  0  0
 37130  1  0  0  0
 38 39  1  0  0  0
 39 40  1  0  0  0
 39131  1  0  0  0
 39132  1  0  0  0
 40 41  1  0  0  0
 40133  1  0  0  0
 40134  1  0  0  0
 41 42  1  0  0  0
 42 43  1  0  0  0
 42135  1  0  0  0
 42136  1  0  0  0
 43 44  1  0  0  0
 43137  1  0  0  0
 43138  1  0  0  0
 44 45  1  0  0  0
 45 46  1  0  0  0
 45139  1  0  0  0
 45140  1  0  0  0
 46 47  1  0  0  0
 46141  1  0  0  0
 46142  1  0  0  0
 47 48  1  0  0  0
 48 49  1  0  0  0
 48143  1  0  0  0
 48144  1  0  0  0
 49 50  1  0  0  0
 49145  1  0  0  0
 49146  1  0  0  0
 50 51  1  0  0  0
 51 52  1  0  0  0
 51147  1  0  0  0
 51148  1  0  0  0
 52 53  3  0  0  0
 53 54  1  0  0  0
 54 57  1  0  0  0
 54 55  2  0  0  0
 55 56  1  0  0  0
 55149  1  0  0  0
 56 59  2  0  0  0
 56150  1  0  0  0
 57 58  2  0  0  0
 57151  1  0  0  0
 58 59  1  0  0  0
 58152  1  0  0  0
 59 60  1  0  0  0
 60 61  1  0  0  0
 61 62  1  0  0  0
 61153  1  0  0  0
 61154  1  0  0  0
 62 63  1  0  0  0
 62155  1  0  0  0
 62156  1  0  0  0
 63 64  1  0  0  0
 63157  1  0  0  0
 63158  1  0  0  0
 64 65  2  0  0  0
 64 69  1  0  0  0
 65 66  1  0  0  0
 65 71  1  0  0  0
 66 67  2  0  0  0
 66 68  1  0  0  0
 68173  1  0  0  0
 69 70  1  0  0  0
 70 71  2  0  0  0
 70 72  1  0  0  0
 72 77  1  0  0  0
 72 73  1  0  0  0
 73 74  1  0  0  0
 73159  1  0  0  0
 73160  1  0  0  0
 74 75  1  0  0  0
 74161  1  0  0  0
 74162  1  0  0  0
 75 76  1  0  0  0
 75 78  2  0  0  0
 76 81  2  0  0  0
 76 77  1  0  0  0
 77163  1  0  0  0
 77164  1  0  0  0
 78 79  1  0  0  0
 78165  1  0  0  0
 79 80  2  0  0  0
 79166  1  0  0  0
 80 81  1  0  0  0
 80167  1  0  0  0
 81 82  1  0  0  0
 82 83  2  0  0  0
 82 84  1  0  0  0
 84 85  1  0  0  0
 84168  1  0  0  0
 85 86  2  0  0  0
 85 89  1  0  0  0
 86 87  1  0  0  0
 87 88  2  0  0  0
 87 90  1  0  0  0
 88 89  1  0  0  0
 88 93  1  0  0  0
 90 91  2  0  0  0
 90169  1  0  0  0
 91 92  1  0  0  0
 91170  1  0  0  0
 92 93  2  0  0  0
 92171  1  0  0  0
 93172  1  0  0  0
M  END
> <s_m_entry_id>
34

> <s_m_entry_name>
6zhc.1_mol2

> <s_m_source_file>
ligprep_1.maegz

> <i_m_source_file_index>
1

> <i_lp_mmshare_version>
38013

> <i_f3d_flags>
0

> <s_lp_Force_Field>
OPLS3

> <r_lp_Energy>
105.789671894948

> <b_lp_Chiralities_Consistent>
1

> <s_lp_Variant>
ligand-1

> <s_m_job_name>
glide-dock_SP_ligprep_ligand

> <s_i_glide_gridfile>
glide-grid_crystal_ligand

> <i_i_glide_lignum>
1

> <i_i_glide_rotatable_bonds>
43

> <r_i_docking_score>
-12.5034756081843

> <r_i_glide_ligand_efficiency>
-0.134445974281551

> <r_i_glide_ligand_efficiency_sa>
-0.609128310717114

> <r_i_glide_ligand_efficiency_ln>
-2.2599639868488

> <r_i_glide_gscore>
-12.5034756081843

> <r_i_glide_evdw>
-89.4062347412109

> <r_i_glide_ecoul>
-9.17767715454102

> <r_i_glide_energy>
-98.583911895752

> <r_i_glide_einternal>
44.0042419433594

> <r_i_glide_emodel>
-123.265934199093

> <r_i_glide_intrahb_reward>
0

> <i_i_glide_confnum>
561

> <i_i_glide_posenum>
2

> <r_i_glide_eff_state_penalty>
0

> <r_i_glide_lipo>
-5.57174158643444

> <r_i_glide_hbond>
-0.39340415230797

> <r_i_glide_metal>
0

> <r_i_glide_rewards>
-0.885459583856979

> <r_i_glide_erotb>
0.301709397987058

> <r_i_glide_esite>
-0.107616373330237

> <s_m_subgroup_title>
glide-dock_SP_ligprep_ligand_pv1

> <s_m_subgroupid>
glide-dock_SP_ligprep_ligand_pv1

> <b_m_subgroup_collapsed>
0

$$$$
