0:0:0
     RDKit          3D

 97105  0  0  1  0  0  0  0  0999 V2000
   30.3480   54.1430   24.3860 C   0  0  0  0  0  2  0  0  0  0  0  0
   29.4580   52.8810   24.2830 C   0  0  0  0  0  2  0  0  0  0  0  0
   28.1460   53.1590   23.7860 O   0  0  0  0  0  0  0  0  0  0  0  0
   27.0620   52.8100   24.6470 C   0  0  0  0  0  2  0  0  0  0  0  0
   25.9080   52.1640   23.8590 C   0  0  0  0  0  2  0  0  0  0  0  0
   25.6770   52.8710   22.6400 O   0  0  0  0  0  0  0  0  0  0  0  0
   24.8330   52.1690   21.7430 C   0  0  0  0  0  2  0  0  0  0  0  0
   25.3200   52.2920   20.2830 C   0  0  0  0  0  2  0  0  0  0  0  0
   26.4760   51.5220   19.9740 O   0  0  0  0  0  0  0  0  0  0  0  0
   27.6440   51.7850   20.7540 C   0  0  0  0  0  2  0  0  0  0  0  0
   28.1330   50.4360   21.3020 C   0  0  0  0  0  2  0  0  0  0  0  0
   26.9960   49.7410   21.7970 O   0  0  0  0  0  0  0  0  0  0  0  0
   27.1510   48.3470   22.0330 C   0  0  0  0  0  2  0  0  0  0  0  0
   25.8200   47.6480   21.6300 C   0  0  0  0  0  2  0  0  0  0  0  0
   26.5330   47.8720   19.3160 N   0  0  0  0  0  0  0  0  0  0  0  0
   25.4960   47.6420   20.1180 C   0  0  0  0  0  0  0  0  0  0  0  0
   24.3790   47.3230   19.6910 O   0  0  0  0  0  0  0  0  0  0  0  0
   27.3850   48.1920   19.7540 H   0  0  0  0  0  0  0  0  0  0  0  0
   26.7430   47.2770   17.9990 C   0  0  0  0  0  3  0  0  0  0  0  0
   28.3140   43.6840   17.9160 C   0  0  0  0  0  3  0  0  0  0  0  0
   27.7480   42.6120   16.9690 C   0  0  0  0  0  2  0  0  0  0  0  0
   27.7240   46.0920   18.2520 C   0  0  0  0  0  0  0  0  0  0  0  0
   26.3090   43.0270   16.7440 C   0  0  0  0  0  3  0  0  0  0  0  0
   26.3080   44.5480   16.8800 C   0  0  0  0  0  2  0  0  0  0  0  0
   27.4930   44.8860   17.6760 N   0  0  0  0  0  0  0  0  0  0  0  0
   28.6670   46.2640   19.0360 O   0  0  0  0  0  0  0  0  0  0  0  0
   30.2140   44.5860   16.7300 O   0  0  0  0  0  0  0  0  0  0  0  0
   29.8140   43.8490   17.6370 C   0  0  0  0  0  0  0  0  0  0  0  0
   30.6270   43.0890   18.3760 N   0  0  0  0  0  0  0  0  0  0  0  0
   30.2110   42.5310   19.1100 H   0  0  0  0  0  0  0  0  0  0  0  0
   32.0400   42.8670   18.1070 C   0  0  0  0  0  2  0  0  0  0  0  0
   32.8930   39.4040   15.5750 C   0  0  0  0  0  0  0  0  0  0  0  0
   33.8500   40.4240   15.7720 C   0  0  0  0  0  3  0  0  0  0  0  0
   33.5570   41.5450   16.5720 C   0  0  0  0  0  3  0  0  0  0  0  0
   31.3240   40.6730   16.9700 C   0  0  0  0  0  3  0  0  0  0  0  0
   32.3000   41.6720   17.1930 C   0  0  0  0  0  0  0  0  0  0  0  0
   31.6200   39.5560   16.1680 C   0  0  0  0  0  3  0  0  0  0  0  0
   33.1120   36.2060   13.3890 C   0  0  0  0  0  3  0  0  0  0  0  0
   33.2190   38.1930   14.8190 C   0  0  0  0  0  0  0  0  0  0  0  0
   34.3700   37.4260   14.8250 C   0  0  0  0  0  0  0  0  0  0  0  0
   35.6300   37.6350   15.6050 C   0  0  0  0  0  1  0  0  0  0  0  0
   34.2890   36.2960   14.0060 N   0  0  0  0  0  0  0  0  0  0  0  0
   32.0090   37.5180   13.7500 S   0  0  0  0  0  0  0  0  0  0  0  0
   25.4750   42.4880   17.7570 O   0  0  0  0  0  0  0  0  0  0  0  0
   25.7840   42.8040   18.5990 H   0  0  0  0  0  0  0  0  0  0  0  0
   27.5740   47.7230   15.6310 C   0  0  0  0  0  1  0  0  0  0  0  0
   27.3120   48.3530   17.0090 C   0  0  2  0  0  0  0  0  0  0  0  0
   28.6110   49.0290   17.5070 C   0  0  0  0  0  1  0  0  0  0  0  0
   26.2400   49.4420   16.7830 C   0  0  0  0  0  1  0  0  0  0  0  0
   31.6540   53.9180   23.8310 O   0  0  0  0  0  0  0  0  0  0  0  0
   32.5650   54.9810   24.1330 C   0  0  0  0  0  2  0  0  0  0  0  0
   33.9580   54.8220   23.4840 C   0  0  0  0  0  2  0  0  0  0  0  0
   34.7380   55.9980   23.7970 O   0  0  0  0  0  0  0  0  0  0  0  0
   35.4680   56.6800   22.7610 C   0  0  0  0  0  2  0  0  0  0  0  0
   34.5640   57.0920   21.6890 C   0  0  0  0  0  0  0  0  0  0  0  0
   33.5080   57.1300   21.0730 C   0  0  0  0  0  0  0  0  0  0  0  0
   32.1420   56.9160   20.6960 C   0  0  0  0  0  0  0  0  0  0  0  0
   31.5660   55.6410   20.8670 C   0  0  0  0  0  3  0  0  0  0  0  0
   30.2040   55.4430   20.5920 C   0  0  0  0  0  3  0  0  0  0  0  0
   31.3770   57.9930   20.2250 C   0  0  0  0  0  3  0  0  0  0  0  0
   30.0250   57.7920   19.9340 C   0  0  0  0  0  3  0  0  0  0  0  0
   29.4290   56.5390   20.1130 C   0  0  0  0  0  0  0  0  0  0  0  0
   28.0980   56.5100   19.8000 O   0  0  0  0  0  0  0  0  0  0  0  0
   27.4930   55.2560   19.6930 C   0  0  0  0  0  2  0  0  0  0  0  0
   26.1060   55.4530   19.0580 C   0  0  0  0  0  2  0  0  0  0  0  0
   25.2080   56.4440   19.8130 C   0  0  0  0  0  2  0  0  0  0  0  0
   23.7720   56.4220   19.3700 C   0  0  0  0  0  0  0  0  0  0  0  0
   22.6350   56.0320   20.0590 C   0  0  0  0  0  0  0  0  0  0  0  0
   23.3470   57.0050   17.7820 S   0  0  0  0  0  0  0  0  0  0  0  0
   21.6580   56.6350   18.1140 C   0  0  0  0  0  0  0  0  0  0  0  0
   21.4570   56.1580   19.3250 N   0  0  0  0  0  0  0  0  0  0  0  0
   20.6390   56.9110   17.2140 N   0  0  0  0  0  0  0  0  0  0  0  0
   19.2330   57.0550   17.5950 C   0  0  0  0  0  2  0  0  0  0  0  0
   18.2620   56.5520   16.5220 C   0  0  0  0  0  2  0  0  0  0  0  0
   18.5760   57.0920   15.1440 C   0  0  0  0  0  0  0  0  0  0  0  0
   19.8780   57.5590   14.8410 C   0  0  0  0  0  0  0  0  0  0  0  0
   20.9460   57.5300   15.9290 C   0  0  0  0  0  2  0  0  0  0  0  0
   17.5650   57.1220   14.1670 C   0  0  0  0  0  3  0  0  0  0  0  0
   17.8440   57.6080   12.8810 C   0  0  0  0  0  3  0  0  0  0  0  0
   19.1350   58.0670   12.5710 C   0  0  0  0  0  3  0  0  0  0  0  0
   20.1700   58.0550   13.5350 C   0  0  0  0  0  0  0  0  0  0  0  0
   21.5240   58.6350   13.1820 C   0  0  0  0  0  0  0  0  0  0  0  0
   22.2600   59.0940   14.0580 O   0  0  0  0  0  0  0  0  0  0  0  0
   21.8630   58.5940   11.8860 N   0  0  0  0  0  0  0  0  0  0  0  0
   23.0120   59.1620   11.2920 C   0  0  0  0  0  0  0  0  0  0  0  0
   23.0910   59.1440    9.9590 N   0  0  0  0  0  0  0  0  0  0  0  0
   24.2960   59.7180    9.5630 C   0  0  0  0  0  0  0  0  0  0  0  0
   25.1470   60.1770   10.6140 C   0  0  0  0  0  0  0  0  0  0  0  0
   24.3680   59.9100   12.1580 S   0  0  0  0  0  0  0  0  0  0  0  0
   24.7530   59.8720    8.2400 C   0  0  0  0  0  3  0  0  0  0  0  0
   26.0120   60.4370    7.9650 C   0  0  0  0  0  3  0  0  0  0  0  0
   26.8390   60.8660    9.0210 C   0  0  0  0  0  3  0  0  0  0  0  0
   26.4060   60.7440   10.3540 C   0  0  0  0  0  3  0  0  0  0  0  0
   21.2000   58.1630   11.2640 H   0  0  0  0  0  0  0  0  0  0  0  0
   22.5430   55.5150   21.4510 C   0  0  0  0  0  0  0  0  0  0  0  0
   23.4720   54.8600   21.9600 O   0  0  0  0  0  0  0  0  0  0  0  0
   21.5010   55.7170   22.1130 O   0  0  0  0  0  1  0  0  0  0  0  0
  2  1  1  0
  3  2  1  0
  3  4  1  0
  5  4  1  0
  6  5  1  0
  7  6  1  0
  8  7  1  0
  9  8  1  0
  9 10  1  0
 10 11  1  0
 11 12  1  0
 12 13  1  0
 14 13  1  0
 15 18  1  0
 15 16  1  0
 16 14  1  0
 17 16  2  0
 19 22  1  0
 19 15  1  0
 20 28  1  0
 21 20  1  0
 22 26  2  0
 23 24  1  0
 23 21  1  0
 23 44  1  0
 24 25  1  0
 25 20  1  0
 25 22  1  0
 27 28  2  0
 28 29  1  0
 29 30  1  0
 31 29  1  0
 32 33  2  0
 32 37  1  0
 33 34  1  0
 34 36  2  0
 35 36  1  0
 36 31  1  0
 37 35  2  0
 38 43  1  0
 38 42  2  0
 39 40  2  0
 39 32  1  0
 40 41  1  0
 42 40  1  0
 43 39  1  0
 44 45  1  0
 47 46  1  6
 47 48  1  0
 47 19  1  0
 49 47  1  0
 50 51  1  0
 50  1  1  0
 52 53  1  0
 52 51  1  0
 54 53  1  0
 55 54  1  0
 56 55  3  0
 57 58  1  0
 57 56  1  0
 59 58  2  0
 60 57  2  0
 61 62  2  0
 61 60  1  0
 62 59  1  0
 63 62  1  0
 64 63  1  0
 65 64  1  0
 65 66  1  0
 67 66  1  0
 67 68  2  0
 68 95  1  0
 69 70  1  0
 69 67  1  0
 70 71  2  0
 71 68  1  0
 72 73  1  0
 72 70  1  0
 74 73  1  0
 75 74  1  0
 76 75  1  0
 76 77  1  0
 77 72  1  0
 78 75  2  0
 79 78  1  0
 80 79  2  0
 80 81  1  0
 81 76  2  0
 82 81  1  0
 82 83  2  0
 84 82  1  0
 85 84  1  0
 85 89  1  0
 86 85  2  0
 87 86  1  0
 87 88  1  0
 88 89  1  0
 90 87  2  0
 91 90  1  0
 91 92  2  0
 92 93  1  0
 93 88  2  0
 94 84  1  0
 95 96  2  0
 95 97  1  0
M  END
>  <TORSDO>  (1) 
F 36

>  <SCORE>  (1) 
-9.273

>  <name>  (1) 
0

>  <ligand_id>  (1) 
0

>  <original_smiles>  (1) 
[H]OC1([H])C([H])([H])N(C(=O)C([H])(N([H])C(=O)C([H])([H])C([H])([H])OC([H])([H])C([H])([H])OC([H])([H])C([H])([H])OC([H])([H])C([H])([H])OC([H])([H])C([H])([H])OC([H])([H])C([H])([H])OC([H])([H])C#Cc2c([H])c([H])c(OC([H])([H])C([H])([H])C([H])([H])c3sc(N4C([H])([H])c5c(C(=O)N([H])c6nc7c([H])c([H])c([H])c([H])c7s6)c([H])c([H])c([H])c5C([H])([H])C4([H])[H])nc3C(=O)[O-])c([H])c2[H])C(C([H])([H])[H])(C([H])([H])[H])C([H])([H])[H])C([H])(C(=O)N([H])C([H])([H])c2c([H])c([H])c(-c3sc([H])nc3C([H])([H])[H])c([H])c2[H])C1([H])[H]

>  <smiles>  (1) 
[H]OC1([H])C([H])([H])N(C(=O)C([H])(N([H])C(=O)C([H])([H])C([H])([H])OC([H])([H])C([H])([H])OC([H])([H])C([H])([H])OC([H])([H])C([H])([H])OC([H])([H])C([H])([H])OC([H])([H])C([H])([H])OC([H])([H])C#Cc2c([H])c([H])c(OC([H])([H])C([H])([H])C([H])([H])c3sc(N4C([H])([H])c5c(C(=O)N([H])c6nc7c([H])c([H])c([H])c([H])c7s6)c([H])c([H])c([H])c5C([H])([H])C4([H])[H])nc3C(=O)[O-])c([H])c2[H])C(C([H])([H])[H])(C([H])([H])[H])C([H])([H])[H])C([H])(C(=O)N([H])C([H])([H])c2c([H])c([H])c(-c3sc([H])nc3C([H])([H])[H])c([H])c2[H])C1([H])[H]

$$$$
